<?xml version="1.0" encoding="UTF-8"?>

<!-- generated on 2025-12-03T15:58:03.755486+01:00 by Eclipse SUMO netedit 1.25.0
<neteditConfiguration xmlns:xsi="http://www.w3.org/2001/XMLSchema-instance" xsi:noNamespaceSchemaLocation="http://sumo.dlr.de/xsd/neteditConfiguration.xsd">

    <input>
        <sumocfg-file value="C:\Users\gasto\Documents\Fluidity\Traci\Traci1.sumocfg"/>
        <route-files value="C:\Users\gasto\Documents\Fluidity\Traci\Traci1.rou.xml"/>
        <sumo-net-file value="C:\Users\gasto\Documents\Fluidity\Traci\Traci1.net.xml"/>
    </input>

    <output>
        <output-file value="C:\Users\gasto\Documents\Fluidity\Traci\Traci1.net.xml"/>
    </output>

    <processing>
        <offset.disable-normalization value="true"/>
    </processing>

    <junctions>
        <no-turnarounds value="true"/>
    </junctions>

    <netedit>
        <new-network value="false"/>
    </netedit>

</neteditConfiguration>
-->

<net version="1.20" junctionCornerDetail="5" limitTurnSpeed="5.50" xmlns:xsi="http://www.w3.org/2001/XMLSchema-instance" xsi:noNamespaceSchemaLocation="http://sumo.dlr.de/xsd/net_file.xsd">

    <location netOffset="0.00,0.00" convBoundary="-100.00,-100.00,200.00,0.00" origBoundary="10000000000.00,10000000000.00,-10000000000.00,-10000000000.00" projParameter="!"/>

    <edge id=":J1_0" function="internal">
        <lane id=":J1_0_0" index="0" speed="6.51" length="9.03" shape="1.60,-7.20 1.95,-4.75 3.00,-3.00 4.75,-1.95 7.20,-1.60"/>
    </edge>
    <edge id=":J1_1" function="internal">
        <lane id=":J1_1_0" index="0" speed="13.89" length="11.20" shape="-4.00,-1.60 7.20,-1.60"/>
    </edge>

    <edge id="E0" from="J0" to="J1" priority="-1">
        <lane id="E0_0" index="0" speed="13.89" length="96.00" shape="-100.00,-1.60 -4.00,-1.60"/>
    </edge>
    <edge id="E1" from="J1" to="J2" priority="-1">
        <lane id="E1_0" index="0" speed="13.89" length="192.80" shape="7.20,-1.60 200.00,-1.60"/>
    </edge>
    <edge id="E2" from="J3" to="J1" priority="-1">
        <lane id="E2_0" index="0" speed="13.89" length="92.80" shape="1.60,-100.00 1.60,-7.20"/>
    </edge>

    <tlLogic id="J1" type="static" programID="0" offset="0">
        <phase duration="10" state="Gr"/>
        <phase duration="3"  state="yr"/>
        <phase duration="10" state="rG"/>
        <phase duration="3"  state="ry"/>
    </tlLogic>

    <junction id="J0" type="dead_end" x="-100.00" y="0.00" incLanes="" intLanes="" shape="-100.00,0.00 -100.00,-3.20"/>
    <junction id="J1" type="traffic_light" x="0.00" y="0.00" incLanes="E2_0 E0_0" intLanes=":J1_0_0 :J1_1_0" shape="7.20,0.00 7.20,-3.20 4.98,-3.64 4.20,-4.20 3.64,-4.98 3.31,-5.98 3.20,-7.20 0.00,-7.20 -0.44,-4.98 -1.00,-4.20 -1.78,-3.64 -2.78,-3.31 -4.00,-3.20 -4.00,0.00">
        <request index="0" response="00" foes="10" cont="0"/>
        <request index="1" response="01" foes="01" cont="0"/>
    </junction>
    <junction id="J2" type="dead_end" x="200.00" y="0.00" incLanes="E1_0" intLanes="" shape="200.00,-3.20 200.00,0.00"/>
    <junction id="J3" type="dead_end" x="0.00" y="-100.00" incLanes="" intLanes="" shape="0.00,-100.00 3.20,-100.00"/>

    <connection from="E0" to="E1" fromLane="0" toLane="0" via=":J1_1_0" tl="J1" linkIndex="1" dir="s" state="o"/>
    <connection from="E2" to="E1" fromLane="0" toLane="0" via=":J1_0_0" tl="J1" linkIndex="0" dir="r" state="O"/>

    <connection from=":J1_0" to="E1" fromLane="0" toLane="0" dir="r" state="M"/>
    <connection from=":J1_1" to="E1" fromLane="0" toLane="0" dir="s" state="M"/>

</net>
