<?xml version="1.0" encoding="UTF-8"?>

<!-- generated on 2025-12-04T03:11:08.033007+01:00 by Eclipse SUMO sumo 1.25.0
-->

<sumoConfiguration xmlns:xsi="http://www.w3.org/2001/XMLSchema-instance" xsi:noNamespaceSchemaLocation="http://sumo.dlr.de/xsd/sumoConfiguration.xsd">

    <input>
        <net-file value="Traci1.net.xml"/>
        <route-files value="Traci1.rou.xml"/>
    </input>

    <time>
        <step-length value="0.1"/>
    </time>

</sumoConfiguration>
