<?xml version="1.0" encoding="UTF-8"?>

<!-- generated on 2025-12-04T03:10:05.284870+01:00 by Eclipse SUMO netedit 1.25.0
-->

<routes xmlns:xsi="http://www.w3.org/2001/XMLSchema-instance" xsi:noNamespaceSchemaLocation="http://sumo.dlr.de/xsd/routes_file.xsd">
    <!-- Vehicles, persons and containers (sorted by depart) -->
    <flow id="f_0" begin="0.00" number="25" period="exp(0.5)" from="E0" to="E1"/>
</routes>
